/*--------------------------------*- C++ -*----------------------------------*\
| =========                 |                                                 |
| \\      /  F ield         | OpenFOAM: The Open Source CFD Toolbox           |
|  \\    /   O peration     | Version:  4.0                                   |
|   \\  /    A nd           | Web:      www.OpenFOAM.org                      |
|    \\/     M anipulation  |                                                 |
\*---------------------------------------------------------------------------*/
FoamFile
{
    version     2.0;
    format      ascii;
    class       dictionary;
    location    "system";
    object      controlDict;
}
// * * * * * * * * * * * * * * * * * * * * * * * * * * * * * * * * * * * * * //

application     foamRun;

solver          incompressibleVoF;

startFrom       latestTime;//If we restart simulation continues from the last time step

startTime       0;

stopAt          endTime;

endTime         10;//we stop after 10 s - adjustableRunTime!

deltaT          1E-10;//initial time step size

writeControl    adjustableRunTime;//simulation can automatically adjust the time step according to the Courant number

writeInterval   0.01;//we write out every 0.01 s

purgeWrite      0;

writeFormat     ascii;

writePrecision  6;

writeCompression off;

timeFormat      general;

timePrecision   6;

runTimeModifiable yes;//adjustableRunTime can modifiy the time step size

adjustTimeStep  on;//adjustableRunTime can modifiy the time step size

//JN: Co = U*dt/dx
//U is defined by the flow
//dx is defined by the cell size i.e. the mesh
//Co should be below or equal to 1
//dt is the only value, which can guarantee this
//dt is changed in each time step

maxCo           0.5;//maximum value for Courant number
maxAlphaCo      0.5;//maximum value for Courant number of the interface water/air

maxDeltaT       1;//maximum time step


// ************************************************************************* //
