/*--------------------------------*- C++ -*----------------------------------*\
| =========                 |                                                 |
| \\      /  F ield         | OpenFOAM: The Open Source CFD Toolbox           |
|  \\    /   O peration     | Version:  4.0                                   |
|   \\  /    A nd           | Web:      www.OpenFOAM.org                      |
|    \\/     M anipulation  |                                                 |
\*---------------------------------------------------------------------------*/
FoamFile
{
    version     2.0;
    format      ascii;
    class       dictionary;
    object      blockMeshDict;
}
// * * * * * * * * * * * * * * * * * * * * * * * * * * * * * * * * * * * * * //

convertToMeters .001;

//These vertices define the block below. It envelopes the stl files. The block can be even bigger than the stl files
//Watch out if the stl files are created in mm or m!

xmin -55;
xmax 55;
ymin -25;
ymax 25;
zmin -15;
zmax 155;

xcells 110;
ycells 50;
zcells 500;

vertices
(
    ($xmin $ymin $zmin)
    ($xmax $ymin $zmin)
    ($xmax $ymax $zmin)
    ($xmin $ymax $zmin)
    ($xmin $ymin $zmax)
    ($xmax $ymin $zmax)
    ($xmax $ymax $zmax)
    ($xmin $ymax $zmax)
);

blocks
(
    hex (0 1 2 3 4 5 6 7) ($xcells $ycells $zcells) simpleGrading (1 1 1)//coarse grid - we will refine in snappyHexMeshDict
);

edges
(
);

boundary
(
    tank		//Adjust these settings according to symmetry patches. Currently none invoked
    {
        type patch;
        faces
        (
            (2 6 5 1)
            (3 7 6 2)
            (0 4 7 3)
            (1 5 4 0)
        );
    }
    lid			//Adjust these settings according to symmetry patches. Currently none invoked
    {
        type patch;
        faces
        (
            (0 3 2 1)
        );
    }
    inlet		//Adjust these settings according to symmetry patches. Currently none invoked
    {
        type patch;
        faces
        (
            (4 5 6 7)
        );
    }

);

// ************************************************************************* //
