/*--------------------------------*- C++ -*----------------------------------*\
  =========                 |
  \\      /  F ield         | OpenFOAM: The Open Source CFD Toolbox
   \\    /   O peration     | Website:  https://openfoam.org
    \\  /    A nd           | Version:  11
     \\/     M anipulation  |
\*---------------------------------------------------------------------------*/
FoamFile
{
    format      ascii;
    class       dictionary;
    object      surfaceFeaturesDict;
}
// * * * * * * * * * * * * * * * * * * * * * * * * * * * * * * * * * * * * * //

inlet
{
    surfaces
    (
        "inlet.stl"
    );

    // Mark edges whose adjacent surface normals are at an angle less
    // than includedAngle as features
    // - 0  : selects no edges
    // - 180: selects all edges
    includedAngle           180;

    // Do not mark region edges
    geometricTestOnly       yes;

    writeObj                yes;
    verboseObj              yes;
    
        closeness
    {
        // Output the closeness of surface points to other surface elements.
        pointCloseness          yes;
    }
    
}

lid
{
    surfaces
    (
        "lid.stl"
    );

    // Mark edges whose adjacent surface normals are at an angle less
    // than includedAngle as features
    // - 0  : selects no edges
    // - 180: selects all edges
    includedAngle           180;

    geometricTestOnly       yes;

    writeObj                yes;
    verboseObj              yes;
    
    closeness
    {
        // Output the closeness of surface points to other surface elements.
        pointCloseness          yes;
    }

}

boilingFlask
{
    surfaces
    (
        "boilingFlask.stl"
    );

    // Mark edges whose adjacent surface normals are at an angle less
    // than includedAngle as features
    // - 0  : selects no edges
    // - 180: selects all edges
    includedAngle           180;

    // Do not mark region edges
    geometricTestOnly       yes;

    writeObj                yes;
    verboseObj              yes;
    
        closeness
    {
        // Output the closeness of surface points to other surface elements.
        pointCloseness          yes;
    }
    
}


// ************************************************************************* //
